test/test_files/validation_tests/case2848rte_res.m
function mpc = case2848rte_res
%CASE2848RTE_RES

%% MATPOWER Case Format : Version 2
mpc.version = '2';

%%-----  Power Flow Data  -----%%
%% system MVA base
mpc.baseMVA = 100;

%% bus data
%    bus_i    type    Pd    Qd    Gs    Bs    area    Vm    Va    baseKV    zone    Vmax    Vmin
mpc.bus = [
    1    1    20.6    0    0    0    1    1.05470451    -6.36026025    63    1    1.06349    0.936508;
    2    1    20.9    17.2    0    0    1    1.02159805    -10.0314739    225    1    1.08889    0.888889;
    3    1    0    0    0    0    1    1.05588778    -3.06269415    380    1    1.10263    1;
    4    1    0    0    0    0    1    1.03948873    -12.6263394    63    1    1.07937    0.920635;
    5    1    0.4    0.1    0    0    1    0.940804175    -6.95718135    45    1    1    0.888889;
    6    1    -2.3    -20.6    0    0    1    0.941885188    -6.97237052    45    1    1    0.888889;
    7    1    110.5    -25.5    0    0    1    1.05055953    -2.81195746    225    1    1.08444    1;
    8    1    44.7    1.5    0    0    1    1.0071444    -12.4478348    63    1    1.06349    0.968254;
    9    1    0    0    0    -21    1    1.04132742    -4.20175487    20    1    1.2    0.8;
    2966    1    0    0    0    -64    1    1.00669238    -7.54386103    20    1    1.2    0.8;
    10    1    0    0    0    0    1    1.05503926    -6.89751636    150    1    1.10667    0.9;
    11    1    31.7    -8.7    0    0    1    1.05818138    -7.16161165    225    1    1.08889    0.933333;
    2571    1    43.7    9.9    0    0    1    1.05428054    -6.88624521    225    1    1.08889    0.933333;
    12    1    0    0    0    0    1    1.06222639    -4.24366388    380    1    1.10526    1;
    13    1    0    0    0    0    1    1.03414703    -9.76584208    225    1    1.09067    1;
    14    1    -4.1    3.7    0    0    1    1.0215438    -9.38943889    63    1    1.06349    0.936508;
    15    1    9    -3.3    0    0    1    1.04614056    -8.39002583    63    1    1.06349    0.936508;
    16    1    120    6.3    0    0    1    1.06403453    -8.65058541    225    1    1.08889    0.933333;
    17    1    35    6.9    0    0    1    1.02935099    -12.4430442    225    1    1.08889    1;
    18    1    45    13.4    0    0    1    1.0075651    -9.91263833    225    1    1.08962    1;
    19    2    0    0    0    0    1    1.049    -8.246157    63    1    1.08661    0.920635;
    20    1    77.3    29.1    0    0    1    1.02929559    -12.4534549    225    1    1.08889    1;
    21    1    48.4    4    0    0    1    1.02562416    -6.46141723    225    1    1.08889    0.888889;
    22    1    4.6    -11.4    0    0    1    1.09924094    -10.8960448    63    1    1.07249    0.936508;
    23    1    33.3    -5.7    0    0    1    1.0301766    -9.27643868    63    1    1.06349    0.936508;
    24    1    0    0    0    0    1    1.03910213    -6.68968611    225    1    1.08889    1;
    2573    1    0    0    0    0    1    1.03910921    -6.69233236    225    1    1.08889    1;
    25    1    18    5.6    0    0    1    1.02598542    -6.49866219    225    1    1.08889    0.888889;
    26    1    1    -8    0    0    1    1.06325955    -1.70151153    225    1    1.09649    0.986667;
    27    1    22    -5.6    0    0    1    1.05527933    -8.77731812    63    1    1.06349    0.936508;
    28    1    -2.1    -0.1    0    0    1    1.01993061    -10.9621242    225    1    1.08889    1;
    2574    1    39.1    10    0    0    1    1.01988664    -10.9654056    225    1    1.08889    1;
    29    1    7.1    -2.6    0    0    1    1.03819592    -8.39782051    63    1    1.06349    0.936508;
    30    1    3.5    -40    0    0    1    1.03258071    -10.6681724    225    1    1.08889    1;
    31    1    7.7    -1.8    0    0    1    1.04938692    -6.36033215    63    1    1.07211    0.936508;
    32    1    12.1    2.1    0    0    1    1.04250787    -8.3128127    63    1    1.06349    0.936508;
    33    1    2.4    -0.4    0    0    1    0.940485632    -7.25819868    45    1    1    0.888889;
    34    1    -0    0    0    0    1    0.940865068    -6.95267437    45    1    1    0.888889;
    35    1    26    0.1    0    0    1    1.03234966    -13.096869    63    1    1.06349    0.968254;
    36    1    0.7    -4.1    0    0    1    0.988075344    -9.71068605    45    1    1    0.888889;
    37    1    9.3    -5.3    0    0    1    1.04678026    -7.87153779    63    1    1.06349    0.936508;
    39    1    78.4    -4.8    0    0    1    1.05160168    -6.13328762    225    1    1.08934    0.986667;
    40    1    25.1    -3.3    0    0    1    1.03063944    -8.10910421    225    1    1.08889    0.888889;
    41    1    80.4    7.4    0    0    1    1.06101612    -20.3127251    225    1    1.08444    1;
    42    1    37.8    2.9    0    0    1    1.05037433    -6.38658747    63    1    1.0637    0.936508;
    43    1    0    0    0    0    1    1.05574253    -5.20380629    225    1    1.08889    0.933333;
    44    1    29    -10    0    0    1    1.03096413    -13.3440232    63    1    1.06349    0.968254;
    45    1    97.4    -3    0    0    1    1.02760856    -8.13451439    225    1    1.08889    1;
    46    1    0    0    0    0    1    1.05587689    -3.0533477    380    1    1.10526    1;
    2575    1    0    0    0    0    1    1.05588619    -3.04946955    380    1    1.10526    1;
    47    1    21.3    -2.6    0    0    1    1.03304321    -5.13913816    63    1    1.06606    0.936508;
    48    1    -0.3    0.8    0    0    1    1.05369464    -6.66317682    63    1    1.06735    0.936508;
    49    1    11.6    3.2    0    0    1    1.0303725    -6.10178681    63    1    1.06349    0.968254;
    2576    1    9.3    4.7    0    0    1    1.0302496    -6.84730878    63    1    1.06349    0.968254;
    50    1    0    0    0    0    1    1.05751774    -5.77466455    225    1    1.08444    1;
    51    1    66.6    0    0    0    1    1.04138928    -9.34301115    225    1    1.08444    1;
    52    1    0    0    0    0    1    1.02965965    -12.3109264    225    1    1.08889    1;
    2942    1    53.9    11.2    0    0    1    1.0173724    -12.1166431    225    1    1.08889    1;
    53    2    7.9    -4.7    0    0    1    1.05    -9.86414738    63    1    1.06349    0.968254;
    54    1    0    0    0    0    1    1.06856453    -8.92739868    150    1    1.08    0.966667;
    55    1    40.5    8.5    0    0    1    1.01750681    -22.5640559    225    1    1.09459    1;
    56    1    0    0    0    0    1    1.02812553    -20.2896432    380    1    1.10526    1;
    57    1    80.2    -7.7    0    0    1    1.05169697    -9.38998418    225    1    1.08889    0.986667;
    58    1    0    0    0    -64    1    1.02139829    -6.61396294    20    1    1.2    0.8;
    59    1    35.3    -9.2    0    0    1    1.02572051    -6.37982068    225    1    1.08889    0.968889;
    60    1    58.9    2.6    0    0    1    1.02923842    -5.15337748    380    1    1.10526    1;
    61    1    5.5    1.7    0    0    1    1.05015512    -7.76188993    63    1    1.06349    0.936508;
    62    1    0.6    0.7    0    0    1    0.999480934    -13.6400437    63    1    1.06349    0.968254;
    63    1    28.6    4.1    0    0    1    0.999689018    -13.6374301    63    1    1.06349    0.968254;
    2577    1    0    0    0    0    1    0.999684281    -14.9082165    63    1    1.06349    0.968254;
    64    1    39.6    9.4    0    0    1    1.06725685    -5.84543613    225    1    1.08889    0.933333;
    65    1    0    0    0    0    1    0.999663036    -14.911645    63    1    1.06349    0.968254;
    66    1    12.5    -6.5    0    0    1    0.997367849    -6.30218048    45    1    1    0.888889;
    2578    2    0    0    0    0    1    1    -6.33871623    45    1    1    0.888889;
    67    1    0.4    3.2    0    0    1    1.0310041    -7.73031824    225    1    1.08889    0.888889;
    2579    1    42.5    7.2    0    0    1    1.0305907    -7.82315807    225    1    1.08889    0.888889;
    68    1    4.2    -2.2    0    0    1    1.03362169    -16.0862089    20    1    1.2    0.8;
    69    1    139.3    4.7    0    0    1    1.03360711    -16.0842327    225    1    1.08685    1;
    70    1    83.7    -8.3    0    0    1    1.034954    -11.8072491    225    1    1.08889    1;
    71    2    0    0    0    0    1    1.079    -9.57327932    150    1    1.10885    0.9;
    72    1    0    0    0    0    1    1.02511353    -10.8013537    225    1    1.08889    1;
    2580    1    0    0    0    0    1    1.02511332    -10.8013524    225    1    1.08889    1;
    74    1    0    0    0    -80    1    1.02511209    -10.8013455    225    1    1.08889    1;
    75    1    15.2    5.4    0    0    1    1.03893454    -5.27223907    63    1    1.06349    0.936508;
    76    2    0    0    0    0    1    0.953    -5.6021482    45    1    1    0.888889;
    77    1    5.7    -1.3    0    0    1    1.04829988    -9.04774903    63    1    1.08481    0.920635;
    78    1    7.8    5.8    0    0    1    1.02659198    -8.46669504    225    1    1.08889    1;
    79    1    14    -4.6    0    0    1    1.02059953    -23.2891819    63    1    1.07937    0.920635;
    80    1    7.1    -2.3    0    0    1    1.05709923    -10.2916875    63    1    1.08744    0.920635;
    81    1    0    0    0    0    1    1.05316553    -11.9798628    225    1    1.08889    1;
    82    1    59.6    24    0    0    1    1.03021446    -8.29389329    225    1    1.08889    0.888889;
    83    1    27.8    -7.5    0    0    1    1.01336719    -17.7847616    63    1    1.06349    0.967399;
    84    1    61.1    -4.5    0    0    1    1.00899018    -6.86088903    225    1    1.08889    0.968889;
    85    1    0    0    0    0    1    1.00582323    -4.80208944    380    1    1.10526    1;
    86    1    31.8    1    0    0    1    1.01449967    -15.6928264    63    1    1.06349    0.968254;
    87    1    22.8    -0.9    0    0    1    1.02594104    -7.92848947    63    1    1.06349    0.968254;
    88    1    2.1    0.8    0    0    1    1.01573779    -10.869702    63    1    1.06349    0.968254;
    89    1    30.5    6.3    0    0    1    0.995988807    -8.97109294    63    1    1.06349    0.968254;
    2581    1    32    12.1    0    0    1    0.995955047    -8.89879325    63    1    1.06349    0.968254;
    90    1    0    0    0    0    1    1.040345    -8.81928743    225    1    1.08444    1;
    2582    1    0    0    0    0    1    1.04046537    -8.81886427    225    1    1.08444    1;
    91    1    89.3    -15.7    0    0    1    1.03589901    -12.9847815    225    1    1.08889    1;
    92    1    6.4    -11.6    0    0    1    1.0773422    -4.35184779    225    1    1.09041    0.933333;
    93    2    0    0    0    0    1    1.078    -9.67303804    150    1    1.10907    0.9;
    94    1    37.7    57.2    0    0    1    1.03370721    -7.57980164    225    1    1.08444    1;
    2583    1    33.4    -0.5    0    0    1    1.0346576    -7.58567372    225    1    1.08444    1;
    95    1    0    0    0    0    1    1.03512475    -7.90435883    225    1    1.08889    0.977778;
    96    1    9    0.8    0    0    1    1.04308726    -6.05919907    225    1    1.08889    0.888889;
    97    1    35.8    4.5    0    0    1    1.00116437    -14.5753296    63    1    1.06349    0.968254;
    98    1    16.5    -8.7    0    0    1    1.05435999    -7.286601    225    1    1.08889    0.933333;
    99    1    28.6    5    0    0    1    1.03406228    -9.82270769    225    1    1.08889    1;
    2584    1    14.5    3.6    0    0    1    1.00686529    -10.0792535    225    1    1.08889    1;
    100    1    7.3    -5.1    0    0    1    1.05230707    -12.273616    225    1    1.08889    1;
    101    1    6.4    2.5    0    0    1    1.0477396    -5.78079308    225    1    1.08889    0.986667;
    102    1    0    0    0    0    1    1.03543967    -7.59799617    225    1    1.08889    0.888889;
    2585    1    0    0    0    0    1    1.03250713    -7.70002035    225    1    1.08889    0.888889;
    103    1    0    0    0    0    1    1.0354284    -5.85418445    380    1    1.10526    1;
    104    1    45.6    7    0    0    1    1.02012385    -11.1249228    225    1    1.08889    1;
    2586    1    19.1    5.8    0    -80    1    1.02519836    -9.92093    225    1    1.08889    1;
    105    1    10.1    -0.9    0    0    1    1.02240628    -11.7394731    63    1    1.07937    0.920635;
    106    1    0    0    0    0    1    1.05453368    -6.30318107    225    1    1.08889    0.977778;
    2587    1    0    0    0    0    1    1.05454939    -6.30342368    225    1    1.08889    0.977778;
    107    1    8.4    3.5    0    0    1    1.03341873    -9.33683218    63    1    1.06349    0.968254;
    108    1    39.7    -6.4    0    0    1    1.05327278    -6.84719485    225    1    1.08444    1;
    109    1    0    0    0    0    1    1.04505982    -5.67696413    225    1    1.08444    1;
    110    1    0    0    0    0    1    1.04245389    0.658977175    380    1    1.10263    1;
    111    1    62.2    -16.1    0    0    1    1.0449323    -5.74055859    225    1    1.08444    1;
    112    1    2.2    -1    0    0    1    1.00833098    -9.79513045    225    1    1.09035    1;
    2588    1    12.3    -2    0    0    1    1.00830403    -9.80171179    225    1    1.09035    1;
    113    1    5    -3.8    0    0    1    1.05835537    -2.95548794    225    1    1.08889    0.888889;
    114    1    30    0    0    0    1    1.0458544    -8.53778864    63    1    1.06349    0.936508;
    115    1    11.7    1.8    0    0    1    1.02989719    -7.47988734    225    1    1.08889    0.888889;
    116    1    51.9    15.9    0    0    1    1.00893367    -7.47468261    225    1    1.08889    0.888889;
    117    1    2.6    0.2    0    0    1    1.04056825    -7.7799212    63    1    1.06349    0.968254;
    118    1    38    3.1    0    0    1    1.00631183    -25.3303955    63    1    1.07937    0.920635;
    119    1    24    -7.3    0    0    1    1.027299    -15.3864114    63    1    1.06349    0.968254;
    120    2    0    0    0    0    1    1.038    -6.16337109    63    1    1.06863    0.936508;
    121    1    8    2.5    0    0    1    1.03115825    -18.493071    63    1    1.06349    0.968254;
    2589    1    9.9    3.5    0    0    1    1.03151661    -18.5003921    63    1    1.06349    0.968254;
    122    1    77.1    -3.9    0    0    1    1.02568006    -7.97134267    225    1    1.08889    1;
    123    1    21.2    4.4    0    0    1    1.03854288    -13.8649458    63    1    1.07937    0.920635;
    124    2    -0    -4.6    0    0    1    1.047    -10.0473018    63    1    1.08203    0.920635;
    125    1    0    0    0    0    1    1.03627903    -18.5616076    63    1    1.07937    0.920635;
    126    1    0    0    0    0    1    1.01319228    -12.8327278    225    1    1.08889    1;
    127    1    0    0    0    0    1    1.05062871    -12.8751281    380    1    1.10526    1;
    128    1    17.1    1.5    0    0    1    1.0548165    -6.43421144    63    1    1.06349    0.936508;
    129    2    18.2    12.2    0    0    1    1.029    -7.41886014    63    1    1.06349    0.936508;
    130    1    -13.2    16.1    0    0    1    1.0438103    -13.0828945    63    1    1.07937    0.920635;
    131    1    0    0    0    0    1    1.04997009    -11.3758136    225    1    1.08889    1;
    132    1    81.2    18.3    0    0    1    1.04787402    -10.5448012    225    1    1.08889    1;
    133    2    9.6    3.3    0    0    1    1.028    -21.4059685    63    1    1.06538    0.968254;
    134    2    0    0    0    0    1    1.042    -15.5753313    150    1    1.08    0.966667;
    135    2    -8.9    -4.4    0    0    1    1.066    -10.8988075    63    1    1.07937    0.920635;
    136    1    -10.6    -2.1    0    0    1    1.03361325    -4.09140516    225    1    1.08889    0.986667;
    137    1    14.1    -3.7    0    0    1    1.01208758    -12.7523012    63    1    1.06349    0.968254;
    138    1    11.3    -2.7    0    0    1    1.07000448    -4.36673677    225    1    1.08444    1;
    139    1    9.4    -2.2    0    0    1    1.0098168    -20.8608443    63    1    1.06349    0.968254;
    140    1    0    0    0    0    1    1.02957315    -2.43049638    380    1    1.10526    1;
    2590    1    0    0    0    0    1    1.03059016    -2.74964724    380    1    1.10526    1;
    141    1    11.1    4.5    0    0    1    1.02794966    -8.01355386    225    1    1.08889    1;
    142    1    7.2    5.2    0    0    1    1.03527316    -10.5477785    225    1    1.08889    1;
    143    1    20.9    -1.3    0    0    1    1.0156966    -14.3067099    63    1    1.06349    0.968254;
    144    1    33.4    6.5    0    0    1    1.06450753    -11.4790349    150    1    1.1    0.9;
    145    1    61.8    -3.3    0    0    1    1.03168242    -14.3088935    225    1    1.08925    1;
    146    2    0    -0    0    0    1    1.02    -10.9841089    225    1    1.08889    1;
    147    1    0    0    0    0    1    1.05726942    -7.25386653    225    1    1.08889    0.933333;
    148    1    0    0    0    0    1    1.06212699    -4.22135425    380    1    1.10526    1;
    2591    1    0    0    0    0    1    1.06215942    -4.21515075    380    1    1.10526    1;
    149    1    0    0    0    0    1    1.02963817    -12.4236936    225    1    1.08889    1;
    2592    1    61.8    10.2    0    0    1    1.01653799    -12.298358    225    1    1.08889    1;
    150    1    0    0    0    0    1    1.01066159    -5.39373687    225    1    1.08889    0.986667;
    151    1    9.8    4.5    0    0    1    1.02946506    -12.4340596    225    1    1.08889    1;
    152    1    0    0    0    0    1    1.06476781    -3.62848975    20    1    1.2    0.8;
    153    1    88.2    -7.1    0    0    1    1.05668343    -3.22112486    225    1    1.08889    0.933333;
    154    1    0    0    0    0    1    1.05807749    -1.38344837    380    1    1.10526    1;
    155    1    23.8    -12.3    0    0    1    1.02642423    -6.35525703    225    1    1.08889    1;
    156    1    18.2    -0.6    0    0    1    1.05933631    -7.56367076    63    1    1.06503    0.936508;
    157    1    0.4    0.2    0    0    1    1.03786549    -9.40822745    63    1    1.06349    0.968254;
    158    1    18.7    -2.5    0    0    1    1.02886987    -15.0271689    63    1    1.07937    0.920635;
    159    1    19.2    -1    0    0    1    1.01435913    -16.3125649    63    1    1.06349    0.968254;
    160    1    4    0.2    0    0    1    1.05293054    -8.69416601    63    1    1.06349    0.936508;
    161    2    0    0    0    0    1    1.063    -15.1026266    63    1    1.15    0.8;
    162    1    2.8    3.9    0    0    1    1.03530426    -11.2207236    225    1    1.09053    1;
    163    1    0    0    0    0    1    1.03097224    -23.8741595    63    1    1.06349    0.968254;
    164    1    68.7    -27.8    0    0    1    1.04298945    -15.2894294    225    1    1.09791    1;
    165    1    70.9    -7.8    0    0    1    1.03980018    -3.98818115    225    1    1.08889    0.986667;
    166    1    35.7    1.2    0    0    1    1.0138269    -10.9079233    63    1    1.06349    0.968254;
    167    1    66.9    15.7    0    0    1    1.03414515    -9.76053654    225    1    1.09067    1;
    168    1    10.2    -5.9    0    0    1    1.05143246    -8.2137936    63    1    1.06349    0.936508;
    169    1    22.5    -8.3    0    0    1    1.03977254    -11.0520789    63    1    1.06349    0.968254;
    170    1    3.1    1.2    0    0    1    1.04549514    -7.92681579    63    1    1.06822    0.936508;
    171    1    103.9    36.4    0    0    1    1.0279787    -8.48321361    225    1    1.08889    0.924444;
    172    2    -0    0    0    0    1    1.03117205    -7.46842715    63    1    1.06349    0.968254;
    173    1    46.9    -16.3    0    0    1    1.05679354    -0.866805811    225    1    1.09616    0.986667;
    174    1    0    0    0    0    1    1.05916881    -0.289733653    380    1    1.10526    1;
    175    1    83.4    -19.9    0    0    1    1.05104139    -13.6865223    225    1    1.08444    1;
    176    1    0    0    0    -64    1    1.00911929    -19.4666261    20    1    1.2    0.8;
    177    1    0    0    0    0    1    0.98594024    -20.928275    63    1    1.06349    0.960855;
    178    1    0    0    0    0    1    1.05933935    -19.1624768    225    1    1.08444    1;
    179    1    0    0    0    0    1    1.05477538    -16.7253976    380    1    1.10263    1;
...
];

%% generator data
%    bus    Pg    Qg    Qmax    Qmin    Vg    mBase    status    Pmax    Pmin    Pc1    Pc2    Qc1min    Qc1max    Qc2min    Qc2max    ramp_agc    ramp_10    ramp_30    ramp_q    apf
mpc.gen = [
    1279    7    3.67112844    15    -15    1.037    100    1    35    7    0    0    0    0    0    0    0    0    0    0    0;
    1210    20.27    0.049662778    20    -15    1.059    100    1    36.1    7.22    0    0    0    0    0    0    0    0    0    0    0;
    751    44    38.4131841    21    -9    1.01    100    1    46    9.2    0    0    0    0    0    0    0    0    0    0    0;
    978    2.18    0.621819383    0.1    -0.1    1.071    100    1    4    0    0    0    0    0    0    0    0    0    0    0    0;
    978    6    1.26090969    1    0.9    1.071    100    1    7    1.4    0    0    0    0    0    0    0    0    0    0    0;
    158    -0.1    0    0    0    1.024    100    1    2.7    0    0    0    0    0    0    0    0    0    0    0    0;
    1217    11.99    -2.84832896    5    -5    1.053    100    1    13    2.6    0    0    0    0    0    0    0    0    0    0    0;
    367    27.57    -0.0522906007    27    -9    1.036    100    1    50    10    0    0    0    0    0    0    0    0    0    0    0;
    1127    -0.66    0    0    0    1.033    100    1    16    3.2    0    0    0    0    0    0    0    0    0    0    0;
    460    12.4    11.577158    40    -40    1.077    100    1    62    12.4    0    0    0    0    0    0    0    0    0    0    0;
    968    15.38    0.0233712144    10    -10    1.07    100    1    18    3.6    0    0    0    0    0    0    0    0    0    0    0;
    1827    21    -81.5359612    7    -12    1.05    100    1    22    4.4    0    0    0    0    0    0    0    0    0    0    0;
    1466    37.99    4.89415835    5    -15    1.07    100    1    40    1    0    0    0    0    0    0    0    0    0    0    0;
    2863    15.76    -14.7642139    6    -6    1.015    100    1    40    1    0    0    0    0    0    0    0    0    0    0    0;
    1466    37.99    4.89415835    5    -15    1.07    100    1    40    1    0    0    0    0    0    0    0    0    0    0    0;
    2863    15.76    -14.7642139    6    -6    1.015    100    1    40    1    0    0    0    0    0    0    0    0    0    0    0;
    1072    4.88    7.90515138    1    0.9    1.08    100    1    12    2.4    0    0    0    0    0    0    0    0    0    0    0;
    1072    0    0    1    0.9    1.08    100    0    14    2.8    0    0    0    0    0    0    0    0    0    0    0;
    1072    4.88    7.90515138    1    0.9    1.08    100    1    12    2.4    0    0    0    0    0    0    0    0    0    0    0;
    642    -0.62    0.22    3    -3    1.013    100    1    10.33    2.07    0    0    0    0    0    0    0    0    0    0    0;
    642    -0.22    0.22    3    -3    1.013    100    1    10.33    2.07    0    0    0    0    0    0    0    0    0    0    0;
    542    5    2.89616028    22    -10    1.011    100    1    50    5    0    0    0    0    0    0    0    0    0    0    0;
    773    0.94    0    0    0    1.039    100    1    12    2.4    0    0    0    0    0    0    0    0    0    0    0;
    399    3.81    0    0    0    1.05    100    1    13.8    2.76    0    0    0    0    0    0    0    0    0    0    0;
    399    -0.18    0    0    0    1.05    100    1    1.2    0    0    0    0    0    0    0    0    0    0    0    0;
    21    18.33    0    0    0    1.026    100    1    24    4.8    0    0    0    0    0    0    0    0    0    0    0;
    21    21.59    0    0    0    1.026    100    1    27.6    5.52    0    0    0    0    0    0    0    0    0    0    0;
    899    12.18    0    0    0    1.057    100    1    18    3.6    0    0    0    0    0    0    0    0    0    0    0;
    899    15.21    0    0    0    1.057    100    1    21    4.2    0    0    0    0    0    0    0    0    0    0    0;
    2618    1.2    0    0    0    1.054    100    1    6    1.2    0    0    0    0    0    0    0    0    0    0    0;
    2618    11.71    2.97650352    10    -6    1.054    100    1    37.5    7.5    0    0    0    0    0    0    0    0    0    0    0;
    285    1.2    0    0    0    1.058    100    1    6    1.2    0    0    0    0    0    0    0    0    0    0    0;
    285    35.99    0.861275847    10    -6    1.058    100    1    37.5    7.5    0    0    0    0    0    0    0    0    0    0    0;
    135    10.32    0.595674904    5    -6    1.066    100    1    13    2.6    0    0    0    0    0    0    0    0    0    0    0;
    53    3.6    6.25995833    0.8    -0.8    1.05    100    1    18    3.6    0    0    0    0    0    0    0    0    0    0    0;
    53    17    6.25995833    0.8    -0.8    1.05    100    1    18    3.6    0    0    0    0    0    0    0    0    0    0    0;
    596    2.26    0    0    0    1.037    100    1    4    0    0    0    0    0    0    0    0    0    0    0    0;
    958    1.09    0    0    0    1.047    100    1    4.6    0    0    0    0    0    0    0    0    0    0    0    0;
    1679    19.98    0.990871493    6    -4    1.058    100    1    21    4.2    0    0    0    0    0    0    0    0    0    0    0;
    1679    5.46    1.08977607    6.7    -4.5    1.058    100    1    21    4.2    0    0    0    0    0    0    0    0    0    0    0;
    1157    -0.71    0    0    0    1.007    100    1    7.2    1.44    0    0    0    0    0    0    0    0    0    0    0;
    513    10    4.29640172    5    1    1.024    100    1    11    2.2    0    0    0    0    0    0    0    0    0    0    0;
    513    10    4.29640172    5    1    1.024    100    1    11    2.2    0    0    0    0    0    0    0    0    0    0    0;
    371    6    4.07937815    5    -5    1.055    100    1    8    1.6    0    0    0    0    0    0    0    0    0    0    0;
    371    1.61    4.07937815    5    -5    1.055    100    1    8    1.6    0    0    0    0    0    0    0    0    0    0    0;
    976    14.97    -10.8134459    12    -15    1.046    100    1    35    7    0    0    0    0    0    0    0    0    0    0    0;
    976    7.85    -10.8134459    12    -15    1.046    100    1    35    7    0    0    0    0    0    0    0    0    0    0    0;
    2754    -0.64    0    0    0    1.029    100    1    11.5    2.3    0    0    0    0    0    0    0    0    0    0    0;
    749    7.69    0.617096029    5    -5    1    100    1    8.5    1.7    0    0    0    0    0    0    0    0    0    0    0;
    1188    19    5.07142481    2    1.9    1.077    100    1    20    4    0    0    0    0    0    0    0    0    0    0    0;
    1254    4.57    -24.4275536    7    -7    1.024    100    1    24    4.8    0    0    0    0    0    0    0    0    0    0    0;
    252    2.21    -0.114705451    8    -5    0.998    100    1    11    2.2    0    0    0    0    0    0    0    0    0    0    0;
    252    3.59    -0.866289228    6    -5    0.998    100    1    9    1.8    0    0    0    0    0    0    0    0    0    0    0;
    252    2.51    -0.114705451    8    -5    0.998    100    1    11    2.2    0    0    0    0    0    0    0    0    0    0    0;
    252    3.67    -0.866289228    6    -5    0.998    100    1    9    1.8    0    0    0    0    0    0    0    0    0    0    0;
    504    10.92    34.9627651    6.5    -6.5    0.983    100    1    12.4    2.48    0    0    0    0    0    0    0    0    0    0    0;
    115    10.69    0    0    0    1.03    100    1    25.3    5.06    0    0    0    0    0    0    0    0    0    0    0;
    967    -1.06    0    0    0    1.07    100    1    2.3    0    0    0    0    0    0    0    0    0    0    0    0;
    1642    2    10.571669    1    -1    1.035    100    1    3    0    0    0    0    0    0    0    0    0    0    0    0;
    1811    2.7    -22.1105749    5.5    -5.5    1.03    100    1    9    1.8    0    0    0    0    0    0    0    0    0    0    0;
    2634    11.1    2.26198036    7    -7    1.06    100    1    14    2.8    0    0    0    0    0    0    0    0    0    0    0;
    326    12.95    2.9583818    7    -7    1.06    100    1    14    2.8    0    0    0    0    0    0    0    0    0    0    0;
    1829    11.99    -9.06526545    7.7    -7.7    1.03    100    1    12.8    2.56    0    0    0    0    0    0    0    0    0    0    0;
    1314    25.63    -0.177849074    19    -19    1.084    100    1    39    7.8    0    0    0    0    0    0    0    0    0    0    0;
    71    13.35    7.89395911    10    -4    1.079    100    1    30    6    0    0    0    0    0    0    0    0    0    0    0;
    93    3.14    -0.703805067    2    1.9    1.078    100    1    6    1.2    0    0    0    0    0    0    0    0    0    0    0;
    129    6.89    -17.6269544    4    -4    1.029    100    1    11    2.2    0    0    0    0    0    0    0    0    0    0    0;
    1594    2.4    2.46515506    5    -5    1.052    100    1    12    2.4    0    0    0    0    0    0    0    0    0    0    0;
    1594    2.4    2.46515506    5    -5    1.052    100    1    12    2.4    0    0    0    0    0    0    0    0    0    0    0;
    1354    2.16    8.58098793    2    -2    1.032    100    1    5    0    0    0    0    0    0    0    0    0    0    0    0;
    1133    -0.88    0    0    0    1.027    100    1    17.25    3.45    0    0    0    0    0    0    0    0    0    0    0;
    1405    15.65    -0.19153209    12    -8    1.032    100    1    37.8    7.56    0    0    0    0    0    0    0    0    0    0    0;
    2850    15.8    -0.188608637    12    -8    1.032    100    1    37.8    7.56    0    0    0    0    0    0    0    0    0    0    0;
    2849    15.02    -0.202986937    12    -8    1.032    100    1    37.8    7.56    0    0    0    0    0    0    0    0    0    0    0;
    1122    0.89    0    0    0    1.037    100    1    6.9    1.38    0    0    0    0    0    0    0    0    0    0    0;
    1708    44.49    0.445705786    27    -9    1.039    100    1    45    44    0    0    0    0    0    0    0    0    0    0    0;
    1708    44.49    0.445705786    27    -9    1.039    100    1    45    44    0    0    0    0    0    0    0    0    0    0    0;
    1658    1.67    0    0    0    1.042    100    1    29.9    5.98    0    0    0    0    0    0    0    0    0    0    0;
    2884    4.54    0    0    0    1.045    100    1    13.7    2.74    0    0    0    0    0    0    0    0    0    0    0;
    1154    15.21    0    0    0    1.036    100    1    20.8    4.16    0    0    0    0    0    0    0    0    0    0    0;
    231    1.66    -30.2104153    8.3    -8.3    1.04    100    1    8.3    1.66    0    0    0    0    0    0    0    0    0    0    0;
    2887    11.2    -0.0927405193    7    -3    1.021    100    1    23.7    4.74    0    0    0    0    0    0    0    0    0    0    0;
    2888    4.74    -0.0467291804    7    -3    1.021    100    1    23.7    4.74    0    0    0    0    0    0    0    0    0    0    0;
    2889    11.28    -0.0930187872    7    -3    1.021    100    1    23.7    4.74    0    0    0    0    0    0    0    0    0    0    0;
    1666    11.29    -0.0930530692    7    -3    1.021    100    1    23.7    4.74    0    0    0    0    0    0    0    0    0    0    0;
    499    14.8    1.09253074    1    0.9    1.114    100    1    17    3.4    0    0    0    0    0    0    0    0    0    0    0;
    499    0    0    1    0.9    1.114    100    0    7    1.4    0    0    0    0    0    0    0    0    0    0    0;
    499    3.4    1.09253074    1    0.9    1.114    100    1    17    3.4    0    0    0    0    0    0    0    0    0    0    0;
    2709    10.44    0.00692147546    4    -4    1.01    100    1    24    4.8    0    0    0    0    0    0    0    0    0    0    0;
    709    13.46    0.0865458378    4    -4    1.01    100    1    24    4.8    0    0    0    0    0    0    0    0    0    0    0;
    2710    4.81    -0.0843932597    4    -4    1.01    100    1    24    4.8    0    0    0    0    0    0    0    0    0    0    0;
    2708    7.56    -0.0490777143    4    -4    1.01    100    1    24    4.8    0    0    0    0    0    0    0    0    0    0    0;
    1280    15.18    0    0    0    1.039    100    1    18    3.6    0    0    0    0    0    0    0    0    0    0    0;
    1493    0    0    11    -11    0.998    100    0    18    3.6    0    0    0    0    0    0    0    0    0    0    0;
    745    9.98    -14.4886741    8    -18    1.02    100    1    29    5.8    0    0    0    0    0    0    0    0    0    0    0;
    2727    12.62    -10.4298378    5    -18    1.029    100    1    29    5.8    0    0    0    0    0    0    0    0    0    0    0;
    1445    39.55    0    0    0    1.026    100    1    55    11    0    0    0    0    0    0    0    0    0    0    0;
    564    -0.83    0    0    0    1.01    100    1    10    2    0    0    0    0    0    0    0    0    0    0    0;
    1047    -0.34    0    0    0    1.038    100    1    12    2.4    0    0    0    0    0    0    0    0    0    0    0;
    1047    -0.6    0    0    0    1.038    100    1    2    0    0    0    0    0    0    0    0    0    0    0    0;
    1335    0.31    -33.5223575    3    -1    1.03    100    1    2    0    0    0    0    0    0    0    0    0    0    0    0;
    2624    14.33    1.95250769    15    -17    1.07    100    1    31    6.2    0    0    0    0    0    0    0    0    0    0    0;
    298    29    -0.188741697    15    -17    1.06    100    1    31    6.2    0    0    0    0    0    0    0    0    0    0    0;
    298    29    -0.188741697    15    -17    1.06    100    1    31    6.2    0    0    0    0    0    0    0    0    0    0    0;
    2625    29    -0.188741697    15    -17    1.06    100    1    31    6.2    0    0    0    0    0    0    0    0    0    0    0;
    2625    29    -0.188741697    15    -17    1.06    100    1    31    6.2    0    0    0    0    0    0    0    0    0    0    0;
    2624    28.64    1.95250769    15    -17    1.07    100    1    31    6.2    0    0    0    0    0    0    0    0    0    0    0;
    2947    10.93    0.170805429    0    -0.01    1.029    100    1    24    4.8    0    0    0    0    0    0    0    0    0    0    0;
    2718    4.81    0.21592154    8    -7    1.029    100    1    24    4.8    0    0    0    0    0    0    0    0    0    0    0;
    2720    4.8    0.216028898    8    -7    1.029    100    1    24    4.8    0    0    0    0    0    0    0    0    0    0    0;
    741    10.85    0.171130031    8    -7    1.029    100    1    24    4.8    0    0    0    0    0    0    0    0    0    0    0;
    2719    6.96    0.19538801    8    -7    1.029    100    1    24    4.8    0    0    0    0    0    0    0    0    0    0    0;
    2721    11.54    0.168561299    8    -7    1.029    100    1    24    4.8    0    0    0    0    0    0    0    0    0    0    0;
    283    8.43    0.12426816    8    -8    1.024    100    1    23.5    4.7    0    0    0    0    0    0    0    0    0    0    0;
    1506    24.99    -4.79934144    6    -11    1.029    100    1    27    5.4    0    0    0    0    0    0    0    0    0    0    0;
    1506    7.94    -4.79934144    6    -11    1.029    100    1    27    5.4    0    0    0    0    0    0    0    0    0    0    0;
    1847    30    2.699013    12    -8    1.035    100    1    32    6.4    0    0    0    0    0    0    0    0    0    0    0;
    1398    9.19    0    0    0    1.021    100    1    20.02    4    0    0    0    0    0    0    0    0    0    0    0;
    1398    8.94    0    0    0    1.021    100    1    20.35    4.07    0    0    0    0    0    0    0    0    0    0    0;
    225    9    -2.44531144    45    -45    1.05    100    1    45    9    0    0    0    0    0    0    0    0    0    0    0;
    225    37.36    -2.44531144    45    -45    1.05    100    1    45    9    0    0    0    0    0    0    0    0    0    0    0;
    1607    1.57    0    0    0    1.038    100    1    1.74    0    0    0    0    0    0    0    0    0    0    0    0;
    314    17.53    1.67719634    10    -10    0.986    100    1    20    4    0    0    0    0    0    0    0    0    0    0    0;
    2680    44.01    2.49383912    100    -60    1.022    100    1    239    44    0    0    0    0    0    0    0    0    0    0    0;
    582    0    0    70    -45    0.892    100    0    169    82    0    0    0    0    0    0    0    0    0    0    0;
    2978    0    0    70    -45    0.892    100    0    169    82    0    0    0    0    0    0    0    0    0    0    0;
    2977    44.01    2.49383912    100    -60    1.022    100    1    239    44    0    0    0    0    0    0    0    0    0    0    0;
    240    47.8    9.0135452    80    -75    1.075    100    1    239    47.8    0    0    0    0    0    0    0    0    0    0    0;
    1655    7.18    0    0    0    1.016    100    1    12    2.4    0    0    0    0    0    0    0    0    0    0    0;
    1655    3.68    0    0    0    1.016    100    1    4    0    0    0    0    0    0    0    0    0    0    0    0;
    1150    36.15    0    0    0    1.047    100    1    54    10.8    0    0    0    0    0    0    0    0    0    0    0;
    1447    4.82    42.7730866    2    -3    1.063    100    1    7    1.4    0    0    0    0    0    0    0    0    0    0    0;
    906    0    0    8    -8    1.077    100    0    21    4.2    0    0    0    0    0    0    0    0    0    0    0;
    1474    0    0    1    -1    1.039    100    0    2    0    0    0    0    0    0    0    0    0    0    0    0;
    1474    1.6    5.26593165    3    -3    1.039    100    1    8    1.6    0    0    0    0    0    0    0    0    0    0    0;
    1474    1.6    5.26593165    3    -3    1.039    100    1    8    1.6    0    0    0    0    0    0    0    0    0    0    0;
    963    7.99    -17.2145861    1    -2    0.977    100    1    8.9    1.78    0    0    0    0    0    0    0    0    0    0    0;
    962    0.19    0    0    0    1.033    100    1    22    4.4    0    0    0    0    0    0    0    0    0    0    0;
    923    11    1.35806711    5    -5    1.056    100    1    12    2.4    0    0    0    0    0    0    0    0    0    0    0;
    1153    14.99    -22.4901694    17.3    -17.3    1.04    100    1    16    3.2    0    0    0    0    0    0    0    0    0    0    0;
    1153    15.99    -13.0000979    10    -10    1.04    100    1    16.8    3.36    0    0    0    0    0    0    0    0    0    0    0;
    274    5.58    1.49718804    3.7    -3.7    1.054    100    1    6.7    1.34    0    0    0    0    0    0    0    0    0    0    0;
    274    1.26    1.21393624    3    -3    1.054    100    1    5.6    1.12    0    0    0    0    0    0    0    0    0    0    0;
    1776    9    24.8736006    5    -5    1.035    100    1    10    2    0    0    0    0    0    0    0    0    0    0    0;
    1776    9    24.8736006    5    -5    1.035    100    1    10    2    0    0    0    0    0    0    0    0    0    0    0;
    184    22    -20.2263845    8    -17    1.056    100    1    23.4    4.68    0    0    0    0    0    0    0    0    0    0    0;
    1657    5.2    -22.0199013    16    -17    1.038    100    1    26    5.2    0    0    0    0    0    0    0    0    0    0    0;
    1657    5.2    -22.0199013    16    -17    1.038    100    1    26    5.2    0    0    0    0    0    0    0    0    0    0    0;
    1761    0.95    -14.3801721    0.1    -0.1    1.079    100    1    2.5    0    0    0    0    0    0    0    0    0    0    0    0;
    1761    4.85    -6.24008604    1    0.9    1.079    100    1    11    2.2    0    0    0    0    0    0    0    0    0    0    0;
    1868    6    3.4813389    18    -18    1.055    100    1    30    6    0    0    0    0    0    0    0    0    0    0    0;
    1868    21.64    3.4813389    18    -18    1.055    100    1    30    6    0    0    0    0    0    0    0    0    0    0    0;
    731    0    0    26    -26    1.053    100    0    43    8.6    0    0    0    0    0    0    0    0    0    0    0;
    2715    0    0    20    -20    1.051    100    0    38    7.6    0    0    0    0    0    0    0    0    0    0    0;
    1263    15.21    0.636080659    14    -14    1.051    100    1    23.1    4.62    0    0    0    0    0    0    0    0    0    0    0;
    1263    15.21    0.636080659    14    -14    1.051    100    1    23.1    4.62    0    0    0    0    0    0    0    0    0    0    0;
    161    3.6    -2.01446025    5    -5    1.063    100    1    18    3.6    0    0    0    0    0    0    0    0    0    0    0;
    604    5.82    16.1300525    6    -6    1.054    100    1    10.2    2.04    0    0    0    0    0    0    0    0    0    0    0;
    918    2.63    0    0    0    1.029    100    1    26    5.2    0    0    0    0    0    0    0    0    0    0    0;
    1760    10.99    -3.28799035    1    -1    1.045    100    1    11.5    2.3    0    0    0    0    0    0    0    0    0    0    0;
    1760    2.3    -3.28799035    1    -1    1.045    100    1    11.5    2.3    0    0    0    0    0    0    0    0    0    0    0;
    1414    11.99    -0.339501058    7.8    -7.8    1.051    100    1    13    2.6    0    0    0    0    0    0    0    0    0    0    0;
    1414    10.99    -0.313385592    7.2    -7.2    1.051    100    1    12    2.4    0    0    0    0    0    0    0    0    0    0    0;
    662    21.23    -0.0410074308    20    -18    1.059    100    1    40    8    0    0    0    0    0    0    0    0    0    0    0;
    2697    23.65    0.0693593292    20    -18    1.059    100    1    40    8    0    0    0    0    0    0    0    0    0    0    0;
    2696    23.63    0.0683736158    20    -18    1.059    100    1    40    8    0    0    0    0    0    0    0    0    0    0    0;
    1346    2.4    0.377332708    7    -7    1.051    100    1    12    2.4    0    0    0    0    0    0    0    0    0    0    0;
    1346    2.4    0.377332708    7    -7    1.051    100    1    12    2.4    0    0    0    0    0    0    0    0    0    0    0;
    2622    4.35    -0.461033486    26    -26    1.045    100    1    8    1.6    0    0    0    0    0    0    0    0    0    0    0;
    2622    8.8    -0.461033486    26    -26    1.045    100    1    15    3    0    0    0    0    0    0    0    0    0    0    0;
    291    9.73    -0.137160438    26    -26    1.054    100    1    19    3.8    0    0    0    0    0    0    0    0    0    0    0;
    1490    9.99    4.78369181    6.5    -6.5    1.057    100    1    10.6    2.12    0    0    0    0    0    0    0    0    0    0    0;
    1671    20    2.29493257    15    -15    1.023    100    1    21.4    4.28    0    0    0    0    0    0    0    0    0    0    0;
    1615    0    0    24    -24    1.051    100    0    39    7.8    0    0    0    0    0    0    0    0    0    0    0;
    1681    16.21    -13.6174102    26.1    -24.36    1.065    100    1    87    17.4    0    0    0    0    0    0    0    0    0    0    0;
    418    15    -6.58674672    50    -40    1.051    100    1    75    15    0    0    0    0    0    0    0    0    0    0    0;
    2658    15    -6.58674672    50    -40    1.051    100    1    75    15    0    0    0    0    0    0    0    0    0    0    0;
    418    15    -6.58674672    50    -40    1.051    100    1    75    15    0    0    0    0    0    0    0    0    0    0    0;
    2658    15    -6.58674672    50    -40    1.051    100    1    75    15    0    0    0    0    0    0    0    0    0    0    0;
    461    -0.68    3.30323848    12.42    -11.59    1.06    100    1    41.4    8.28    0    0    0    0    0    0    0    0    0    0    0;
    31    6.07    0    0    0    1.034    100    1    6.68    1.34    0    0    0    0    0    0    0    0    0    0    0;
    236    3    -2.13192183    7    0    1.024    100    1    15    3    0    0    0    0    0    0    0    0    0    0    0;
    236    3.01    -2.13192183    7    0    1.024    100    1    15    3    0    0    0    0    0    0    0    0    0    0    0;
    1754    0.48    -0.875193355    1    -1    1.04    100    1    1    0    0    0    0    0    0    0    0    0    0    0    0;
    1754    0.48    -0.875193355    1    -1    1.04    100    1    1    0    0    0    0    0    0    0    0    0    0    0    0;
    1754    0.48    -0.875193355    1    -1    1.04    100    1    1    0    0    0    0    0    0    0    0    0    0    0    0;
    898    1.02    0    0    0    1.047    100    1    1.7    0    0    0    0    0    0    0    0    0    0    0    0;
    898    17.23    0    0    0    1.047    100    1    22.6    4.52    0    0    0    0    0    0    0    0    0    0    0;
    120    13.99    -9.04423309    9    -9    1.038    100    1    15    3    0    0    0    0    0    0    0    0    0    0    0;
    549    5    4.67479063    22    -10    1.012    100    1    50    5    0    0    0    0    0    0    0    0    0    0    0;
    77    2.43    0    0    0    1.048    100    1    23.5    4.7    0    0    0    0    0    0    0    0    0    0    0;
    124    -5.91    -0.117794576    0    0    1.047    100    1    0    -7    0    0    0    0    0    0    0    0    0    0    0;
    124    -5.91    -0.117794576    0    0    1.047    100    1    0    -7    0    0    0    0    0    0    0    0    0    0    0;
    552    -1.27    0    0    0    1.037    100    1    21    4.2    0    0    0    0    0    0    0    0    0    0    0;
    1858    8.99    1.08558186    6    -6    1    100    1    9.6    1.92    0    0    0    0    0    0    0    0    0    0    0;
    134    24    21.6176874    13    -9    1.042    100    1    25    5    0    0    0    0    0    0    0    0    0    0    0;
    1204    8.4    -17.67453    25    -20    0.971    100    1    42    8.4    0    0    0    0    0    0    0    0    0    0    0;
    1204    8.4    -17.67453    25    -20    0.971    100    1    42    8.4    0    0    0    0    0    0    0    0    0    0    0;
    641    2.2    0.764989711    5    -5    1.028    100    1    11    2.2    0    0    0    0    0    0    0    0    0    0    0;
    641    2.2    0.764989711    5    -5    1.028    100    1    11    2.2    0    0    0    0    0    0    0    0    0    0    0;
...
];

%% branch data
%    fbus    tbus    r    x    b    rateA    rateB    rateC    ratio    angle    status    angmin    angmax    Pf    Qf    Pt    Qt
mpc.branch = [
    639    1    0.005799    0.010615    0.0075    0    0    0    1    0    1    0    0    20.6221    -0.7947    -20.6000    -0.0000;
    909    2    0.002607    0.017462    0.0324    540    540    540    1    0    1    0    0    20.9169    13.9213    -20.9000    -17.2000;
    2575    3    2.1e-05    0.000125    0.1386    737    737    737    1    0    1    0    0    200.0000    -42.6436    -199.9922    27.2373;
    875    3    0.000145    0.001877    0.0635    2487    2487    2487    1    0    1    0    0    -256.4205    1.6630    256.5061    -7.6328;
    1710    3    0.000319    0.003234    0.0838    1841    1841    1841    1    0    1    0    0    -83.4577    35.5011    83.4822    -44.6042;
    46    3    2.1e-05    0.000125    0.1386    737    737    737    1    0    1    0    0    140.0000    -40.4289    -139.9961    24.9997;
    1073    4    0.037541    0.100529    0.0011    0    0    0    1    0    1    0    0    -28.3997    7.0738    28.6998    -6.3886;
    1533    4    0.090199    0.211388    0.0023    0    0    0    1    0    1    0    0    2.3910    2.2908    -2.3815    -2.5186;
    1658    4    0.09801    0.267574    0    0    0    0    1    0    1    0    0    27.0185    -6.9956    -26.3183    8.9073;
    1370    5    0.009383    0.019753    0    0    0    0    1    0    1    0    0    0.4000    0.1000    -0.4000    -0.1000;
    1370    6    0.001975    0.004444    0    0    0    0    1    0    1    0    0    -2.2904    -20.5785    2.3000    20.6000;
    199    7    0.006163    0.041067    0.0759    446    446    446    1    0    1    0    0    8.9628    -8.1359    -8.9574    -0.1970;
    880    7    0.000652    0.004369    0.0081    558    558    558    1    0    1    0    0    101.6075    -26.1554    -101.5426    25.6970;
    1061    8    0.067019    0.137566    0.0037    0    0    0    1    0    1    0    0    31.5269    -2.0364    -30.8899    2.9621;
    1223    8    0.032754    0.088939    0.0039    0    0    0    1    0    1    0    0    6.5610    1.7635    -6.5460    -2.1198;
    1223    8    0.030184    0.080096    0.0053    0    0    0    1    0    1    0    0    7.2811    1.8478    -7.2641    -2.3424;
    1371    10    0.009733    0.034089    0.0185    0    0    0    1    0    1    0    0    0.2680    12.7452    -0.2516    -14.7555;
    147    11    0.000277    0.002015    0.003    288    288    288    1    0    1    0    0    -94.1881    -34.9983    94.2131    34.8445;
    387    2571    0.00881    0.033995    0.0607    289    289    289    1    0    1    0    0    -25.3483    26.7819    25.4698    -33.1082;
    437    2571    0.004642    0.019832    0.0354    255    255    255    1    0    1    0    0    -107.7116    -6.1373    108.2022    4.3200;
    955    11    0.008861    0.03506    0.0623    288    288    288    1    0    1    0    0    -47.4280    -16.4718    47.6225    10.3211;
    991    11    0.006993    0.032869    0.0557    255    255    255    1    0    1    0    0    -77.6750    -30.6373    78.1110    26.5321;
    1774    2571    0.002173    0.008731    0.0152    0    0    0    1    0    1    0    0    12.2643    18.5040    -12.2541    -20.1554;
    1817    11    0.00077    0.003121    0.0051    0    0    0    1    0    1    0    0    19.3044    60.0608    -19.2769    -60.5214;
    2092    2571    0.004109    0.016138    0.0284    288    288    288    1    0    1    0    0    -45.2358    7.9106    45.3148    -10.7559;
    2591    12    8.3e-05    0.000907    0.0202    1034    1034    1034    1    0    1    0    0    60.6800    -14.5196    -60.6772    12.2716;
    419    12    0.000552    0.006726    0.0939    1786    1786    1786    1    0    1    0    0    -31.6575    -26.5233    31.6647    16.0303;
    808    12    0.000512    0.008012    0.2455    2462    2462    2462    1    0    1    0    0    290.6035    -41.4802    -290.2162    19.8651;
    1158    12    0.001107    0.00918    0.1906    1644    1644    1644    1    0    1    0    0    -175.2569    58.7350    175.6031    -77.4523;
    148    12    6.2e-05    0.000741    0.0173    1095    1095    1095    1    0    1    0    0    57.6900    -20.0387    -57.6880    18.1112;
    808    12    0.000512    0.008019    0.2455    2462    2462    2462    1    0    1    0    0    290.3524    -41.4401    -289.9658    19.8197;
    808    12    0.001153    0.013123    0.1841    1433    1433    1433    1    0    1    0    0    176.6505    -31.4346    -176.3266    14.3673;
    167    13    0.000158    0.000672    0.0719    331    331    331    1    0    1    0    0    13.9004    -7.4018    -13.9001    -0.2863;
    1463    13    4.5e-05    8.9e-05    0.002    268    268    268    1    0    1    0    0    -13.9000    -0.5000    13.9001    0.2863;
    820    14    0.033258    0.090955    0.001    0    0    0    1    0    1    0    0    -4.0904    3.6217    4.1000    -3.7000;
    465    15    0.071303    0.180902    0.0021    0    0    0    1    0    1    0    0    2.2507    -4.4321    -2.2351    4.2433;
    878    15    0.071554    0.18191    0.0021    0    0    0    1    0    1    0    0    6.7953    0.7893    -6.7649    -0.9433;
    2664    16    0.00478    0.028622    0.0547    455    455    455    1    0    1    0    0    60.1861    5.8544    -60.0312    -11.1490;
    451    16    0.00478    0.028583    0.0547    455    455    455    1    0    1    0    0    60.1233    -10.1221    -59.9688    4.8490;
    151    17    0.000257    0.000514    0.0294    0    0    0    1    0    1    0    0    35.0030    3.7906    -35.0000    -6.9000;
    987    18    0.000257    0.002153    0.2147    452    452    452    1    0    1    0    0    -111.1556    -29.7384    111.1878    8.2272;
    1264    18    0.000277    0.000869    0.0931    481    481    481    1    0    1    0    0    156.2551    12.3817    -156.1878    -21.6272;
    1903    19    0.000756    0.00252    0    0    0    0    1    0    1    0    0    -18.6690    3.4905    18.6715    -3.4823;
    1247    20    0.000237    0.00083    0.1863    268    268    268    1    0    1    0    0    95.5179    0.3431    -95.4973    -20.0142;
    1301    20    0.000178    0.000612    0.1377    268    268    268    1    0    1    0    0    -18.1967    -5.5006    18.1973    -9.0858;
    59    21    0.002568    0.011753    0.0203    424    424    424    1    0    1    0    0    12.3437    -2.9150    -12.3399    0.7968;
    1908    21    0.002568    0.011615    0.0228    290    290    290    1    0    1    0    0    -3.8592    2.4008    3.8599    -4.7968;
    591    22    0.102293    0.226757    0.0025    0    0    0    1    0    1    0    0    -9.6000    7.0000    9.7201    -7.0373;
    855    22    0.177551    0.405291    0.0046    0    0    0    1    0    1    0    0    10.4747    -14.3537    -9.9884    14.9269;
    1199    22    0.088264    0.161566    0.0017    0    0    0    1    0    1    0    0    4.3549    -3.6729    -4.3317    3.5104;
    820    23    0.043336    0.11867    0.001    0    0    0    1    0    1    0    0    -7.1096    -3.2217    7.1347    3.1849;
    1059    23    0.067775    0.139834    0.001    0    0    0    1    0    1    0    0    -2.2051    1.0475    2.2089    -1.1456;
    1691    23    0.047367    0.16125    0.0021    0    0    0    1    0    1    0    0    18.6561    2.1664    -18.5019    -1.8670;
    1922    23    0.004031    0.016629    0.001    0    0    0    1    0    1    0    0    24.1650    -5.5376    -24.1417    5.5277;
    1377    24    9.9e-05    0.00077    0.078    379    379    379    1    0    1    0    0    -84.5034    0.7557    84.5100    -9.1262;
    1377    2573    9.9e-05    0.00077    0.077    379    379    379    1    0    1    0    0    -78.2544    -0.9522    78.2600    -7.3177;
    1908    25    0.000514    0.003437    0.0061    290    290    290    1    0    1    0    0    3.8592    -2.4008    -3.8591    1.7594;
    1914    25    0.005476    0.036879    0.1255    522    522    522    1    0    1    0    0    -46.3538    11.5812    46.4819    -23.9797;
    59    25    0.000514    0.003457    0.0061    418    418    418    1    0    1    0    0    60.6421    -17.1322    -60.6228    16.6204;
    1138    26    0.003477    0.01118    0.0187    304    304    304    1    0    1    0    0    -5.9273    -21.5080    5.9413    19.4436;
    1409    26    0.000612    0.003121    0.0152    270    270    270    1    0    1    0    0    6.9422    9.7291    -6.9413    -11.4436;
    2755    27    0.013857    0.035525    0.0004    0    0    0    1    0    1    0    0    22.0642    -5.4801    -22.0000    5.6000;
    1514    28    2.4e-05    0.000144    0.0213    701    701    701    1    0    1    0    0    -2.1000    -2.3157    2.1000    0.1000;
    1514    2574    7.1e-05    0.000162    0.0162    251    251    251    1    0    1    0    0    39.1011    8.3174    -39.1000    -10.0000;
    249    29    0.068027    0.173091    0.002    0    0    0    1    0    1    0    0    -20.5217    0.0723    20.7948    0.4098;
    296    29    0.027211    0.068783    0.001    0    0    0    1    0    1    0    0    1.5480    0.2428    -1.5474    -0.3490;
    776    29    0.03099    0.202822    0.002    0    0    0    1    0    1    0    0    26.5490    -1.4362    -26.3474    2.5392;
    1274    30    0.000257    0.001165    0.002    405    405    405    1    0    1    0    0    3.5039    -40.1954    -3.5000    40.0000;
    1906    31    0.047317    0.131595    0.0015    0    0    0    1    0    1    0    0    1.6327    -1.9575    -1.6300    1.8000;
    2686    32    0.075838    0.224742    0.0027    0    0    0    1    0    1    0    0    3.8915    5.1142    -3.8624    -5.3253;
    648    32    0.028471    0.089695    0.001    0    0    0    1    0    1    0    0    14.6400    -6.3369    -14.5733    6.4384;
    1337    32    0.080373    0.255732    0.003    0    0    0    1    0    1    0    0    -6.3000    2.8000    6.3357    -3.0132;
    2050    32    0.000252    0.000504    0    0    0    0    1    0    1    0    0    -0.0000    0.2000    0.0000    -0.2000;
    1907    33    0.000444    0.001136    0    0    0    0    1    0    1    0    0    2.4000    -0.3999    -2.4000    0.4000;
    1370    34    0.057284    0.130864    0    0    0    0    1    0    1    0    0    0.0000    -0.0000    -0.0000    0.0000;
    242    35    0.054749    0.157445    0.0027    0    0    0    1    0    1    0    0    20.2164    -1.6183    -20.0085    1.9260;
    1507    35    0.038549    0.103049    0.0012    0    0    0    1    0    1    0    0    -8.6000    1.4000    8.6276    -1.4538;
    2117    35    0.012598    0.052406    0.0006    0    0    0    1    0    1    0    0    14.6444    0.6134    -14.6191    -0.5722;
    800    36    0.006914    0.020741    0    0    0    0    1    0    1    0    0    0.7012    -4.0963    -0.7000    4.1000;
    712    37    0.032124    0.082892    0.003    0    0    0    1    0    1    0    0    7.7839    1.7192    -7.7653    -2.0009;
    1655    37    0.025573    0.09869    0.0012    0    0    0    1    0    1    0    0    1.5479    -7.3806    -1.5347    7.3009;
    637    39    0.005709    0.037926    0.0688    492    492    492    1    0    1    0    0    -43.5534    -13.7663    43.6577    6.8950;
    2032    39    0.001758    0.011654    0.0208    492    492    492    1    0    1    0    0    122.2945    1.3601    -122.0577    -2.0950;
    2585    40    0.001383    0.009462    0.0172    463    463    463    1    0    1    0    0    81.5757    7.8270    -81.4884    -9.0599;
    593    40    0.00156    0.006933    0.0121    432    432    432    1    0    1    0    0    -15.0830    6.8984    15.0871    -8.1654;
    788    40    0.006376    0.028733    0.0506    432    432    432    1    0    1    0    0    15.6001    -25.6773    -15.5532    20.5424;
    1291    40    0.00158    0.010627    0.0192    481    481    481    1    0    1    0    0    -56.8064    -1.6970    56.8545    -0.0171;
    1108    41    0.001086    0.003536    0.3766    506    506    506    1    0    1    0    0    40.2185    -38.6287    -40.2000    -3.7000;
    1108    41    0.001086    0.003536    0.3766    506    506    506    1    0    1    0    0    40.2185    -38.6287    -40.2000    -3.7000;
    235    42    0.04059    0.110708    0.0013    0    0    0    1    0    1    0    0    0.0073    2.4231    -0.0051    -2.5606;
    248    42    0.073646    0.225598    0.0087    0    0    0    1    0    1    0    0    -11.6079    3.0876    11.7065    -3.7447;
    285    42    0.02066    0.088687    0.0021    0    0    0    1    0    1    0    0    37.1900    0.8613    -36.9345    0.0019;
    1933    42    0.019904    0.08516    0.001    0    0    0    1    0    1    0    0    -3.5934    5.2243    3.6007    -5.3038;
    1935    42    0.014361    0.068027    0.0035    0    0    0    1    0    1    0    0    3.2431    -2.8037    -3.2409    2.4288;
...